OPT_V9/My_campus_w_initial_sub_3_active_25_03_11_44/powerflow_results_t24.txt
Pandapower Network Debug Info
==================================================

BUS:
       vm_pu  va_degree      p_mw    q_mvar
0   0.992453   0.119481  0.001159  0.000872
1   0.987942   0.198439  0.001288  0.001664
2   0.983415   0.285046  0.002273  0.003396
3   0.988111   0.203662  0.002949  0.004457
4   0.988559   0.323172  0.002760  0.005989
5   0.992125   0.130402  0.003283  0.005569
6   0.990243   0.124253  0.001390  0.000963
7   0.997072   0.026744  0.002152  0.002341
8   0.997714   0.051945  0.002092  0.002953
9   0.999892   0.000459  0.009254  0.009243
10  0.999879   0.000449  0.009341  0.007884
11  0.999869   0.000417  0.013259  0.009212
12  0.999762   0.000910  0.011688  0.005160
13  0.999743   0.001008  0.013363  0.008459
14  0.999731   0.001080  0.013852  0.013382
15  0.999932   0.000393  0.000000  0.000000
16  0.999932   0.000399  0.000000  0.000000
17  0.999767   0.000989  0.000000  0.000000
18  0.999767   0.000999  0.000000  0.000000
19  1.000000   0.000000 -0.039687 -0.041841
20  1.000000   0.000006  0.000000  0.000000
21  1.000000   0.000000 -0.050746 -0.049928
22  1.000000   0.000007  0.000000  0.000000
--------------------------------------------------

LINE:
    p_from_mw  q_from_mvar   p_to_mw  q_to_mvar         pl_mw       ql_mvar  i_from_ka   i_to_ka      i_ka  vm_from_pu  va_from_degree  vm_to_pu  va_to_degree  loading_percent
0    0.039677     0.037841 -0.039674  -0.037838  2.940456e-06  2.292722e-06   0.002110  0.002110  0.002110    1.000000        0.000006  0.999932      0.000393         0.917548
1    0.050736     0.045928 -0.050724  -0.045919  1.259822e-05  9.823042e-06   0.002634  0.002634  0.002634    1.000000        0.000007  0.999767      0.000989         1.145274
2    0.031856     0.026341 -0.031855  -0.026340  1.321453e-06  1.030358e-06   0.001591  0.001591  0.001591    0.999932        0.000393  0.999892      0.000459         0.691794
3    0.011688     0.005160 -0.011688  -0.005160  5.647250e-08  4.403254e-08   0.000492  0.000492  0.000492    0.999767        0.000989  0.999762      0.000910         0.213851
4    0.027216     0.021842 -0.027216  -0.021842  6.661965e-07  5.194444e-07   0.001344  0.001344  0.001344    0.999767        0.000989  0.999743      0.001008         0.584131
5    0.007808     0.010498 -0.007728  -0.010435  8.006954e-05  6.243154e-05   0.018885  0.018885  0.018885    0.999932        0.000399  0.992453      0.119481         8.210923
6    0.004727     0.006573 -0.004676  -0.006533  5.087438e-05  3.966760e-05   0.011688  0.011688  0.011688    0.999767        0.000999  0.992125      0.130402         5.081845
7    0.002159     0.002346 -0.002152  -0.002341  6.871447e-06  5.357781e-06   0.004603  0.004603  0.004603    0.999767        0.000999  0.997072      0.026744         2.001375
8    0.004924     0.008998 -0.004906  -0.008984  1.809837e-05  1.411160e-05   0.014809  0.014809  0.014809    0.999767        0.000999  0.997714      0.051945         6.438519
9   -0.022601    -0.017097  0.022601   0.017097  2.777921e-07  2.165991e-07   0.001091  0.001091  0.001091    0.999879        0.000449  0.999892      0.000459         0.474301
10  -0.013259    -0.009212  0.013259   0.009212  1.275206e-07  9.942993e-08   0.000622  0.000622  0.000622    0.999869        0.000417  0.999879      0.000449         0.270226
11  -0.013852    -0.013382  0.013852   0.013382  1.815202e-07  1.415343e-07   0.000742  0.000742  0.000742    0.999731        0.001080  0.999743      0.001008         0.322403
12  -0.003576    -0.005072  0.003600   0.005091  2.334947e-05  1.820597e-05   0.009068  0.009068  0.009068    0.987942        0.198439  0.992453      0.119481         3.942456
13  -0.002949    -0.004457  0.002969   0.004473  1.953516e-05  1.523189e-05   0.007807  0.007807  0.007807    0.988111        0.203662  0.992453      0.119481         3.394489
14  -0.002273    -0.003396  0.002289   0.003408  1.561907e-05  1.217845e-05   0.005998  0.005998  0.005998    0.983415        0.285046  0.987942      0.198439         2.607668
15   0.002814     0.006031 -0.002760  -0.005989  5.413841e-05  4.221261e-05   0.009628  0.009628  0.009628    0.997714        0.051945  0.988559      0.323172         4.186036
16  -0.001390    -0.000963  0.001392   0.000965  2.537512e-06  1.978540e-06   0.002464  0.002464  0.002464    0.990243        0.124253  0.992125      0.130402         1.071373
--------------------------------------------------

TRAFO:
    p_hv_mw  q_hv_mvar   p_lv_mw  q_lv_mvar    pl_mw   ql_mvar   i_hv_ka   i_lv_ka  vm_hv_pu  va_hv_degree  vm_lv_pu  va_lv_degree  loading_percent
0  0.007818   0.011498 -0.007808  -0.010498  0.00001  0.001000  0.000535  0.018885  0.999932      0.000393  0.999932      0.000399         0.139047
1  0.011820   0.018917 -0.011810  -0.017917  0.00001  0.000999  0.000859  0.030981  0.999767      0.000989  0.999767      0.000999         0.223110
2  0.039687   0.041841 -0.039677  -0.037841  0.00001  0.004000  0.000476  0.002110  1.000000      0.000000  1.000000      0.000006         0.144172
3  0.050746   0.049928 -0.050736  -0.045928  0.00001  0.004000  0.000587  0.002634  1.000000      0.000000  1.000000      0.000007         0.177975
--------------------------------------------------
